case4.m
    function mpc = case6ww_GCEP
mpc.baseMVA = 100;
mpc.bus = [
	1       3           0       0	0	0	1       1.05	0	230	1       1.05	1.05;
	2       2           0       0	0	0	1       1.05	0	230	1       1.05	1.05;
	3       2           0       0	0	0	1       1.07	0	230	1       1.07	1.07;
	4       1           200     0	0	0	1       1       0	230	1       1.05	0.95;
	5       1           200     0	0	0	1       1       0	230	1       1.05	0.95;
	6       1           200     0	0	0	1       1       0	230	1       1.05	0.95;
];
mpc.factor=[0.75 0.8333 0.9166 1;
  0.9166 1 1.083 1.166;
  1.083 1.166 1.25 1.33;
  1.25 1.333 1.4166 1.5;
  1.4166 1.5 1.5833 1.666;];
mpc.gen = [
	1	0	0	0	0	0	0	0	150 0	300000	1	12000	3	0	0	0	0	0	0	0	0; %2
	3	0	0	0	0	0	0	0	100 0   250000	1	30000	3	0	0	0	0	0	0	0	0; %3
	5	0	0	0	0	0   0	0	250 0   350000	1	36000	3	0	0	0	0	0	0	0	0; %6
	1   0   0   0   0	0	0   1   250 0   0       0   0       1   0   0   0   0   0   0   0   0; %1
    4   0   0   0   0   0   0   1   100 0   0       0   0       1   0   0   0   0   0   0   0   0; %4
    4   0   0   0   0   0   0   1   50  0   0       0   0       1   0   0   0   0   0   0   0   0; %5
];
mpc.branch = [
	1	2	0.1     0.2	0.04	400	40	40	0	0	1	-360	360; %1
	1	4	0.05	0.2	0.04	40	60	60	0	0	1	-360	360; %2
	1	5	0.08	0.3	0.06	400	40	40	0	0	1	-360	360; %3
	2	3	0.05	0.25 0.06	400	40	40	0	0	1	-360	360; %4
	2	4	0.05	0.1	0.02	40	60	60	0	0	1	-360	360; %5
	2	5	0.1     0.3	0.04	400	30	30	0	0	1	-360	360; %6
	2	6	0.07	0.2	0.05	400 90	90	0	0	1	-360	360; %7
	3	5	0.12	0.26 0.05	400	70	70	0	0	1	-360	360; %8
	3	6	0.02	0.1	0.02	400 80	80	0	0	1	-360	360; %9
	4	5	0.2     0.4	0.08	40	20	20	0	0	1	-360	360; %10 
	5	6	0.1     0.3	0.06	400	40	40	0	0	1	-360	360; %11
];

mpc.gencost = [
	2	0	0	3	0.0430292599	20.41	0;
	2	0	0	3	0.25	25.95	0;
	2	0	0	3	0.01	14.08	0;
	2	0	0	3	0.01	18.5	0;
	2	0	0	3	0.01	14.36	0;
	2	0	0	3	0.01	22.11	0;
];
